kpg193_v2_0_2025/network/m/KPG193_ver2_0_2025.m
function mpc = KPG193_ver2_0_2025
% Generated from KPG193_ver1_6 ACOPF hourly result.
% Bus voltage angle Va is in degrees, matching MATPOWER case format.
mpc.version = '2';

%-----  Power Flow Data  -----%%
% system MVA base
mpc.baseMVA = 100;

% bus data
%	bus_i	type	Pd	Qd	Gs	Bs	area	Vm	Va	baseKV	zone	Vmax	Vmin
mpc.bus = [
	1	1	62.3941577373	6.23941577373	0	0	1	0.98737222179	-18.7746429178	154	1	1.1	0.9	;
	2	1	75.4113786288	7.54113786288	0	0	1	0.995031387554	-19.9042538343	345	1	1.05	0.95	;
	3	1	345.865892193	34.5865892193	0	0	1	0.995519734686	-19.763624882	345	1	1.05	0.95	;
	4	1	80.2189780093	8.02189780093	0	0	1	0.996321213264	-20.2489383626	345	1	1.05	0.95	;
	5	1	76.452953299	9.05846820867	0	0	1	0.980491273254	-18.0006713448	154	1	1.1	0.9	;
	6	1	77.0731686557	7.70731686557	0	0	1	0.997307972482	-21.6112034553	154	1	1.1	0.9	;
	7	1	520.050441776	52.0051695263	0	0	1	0.998727688188	-20.199629512	345	1	1.05	0.95	;
	8	1	1187.10478291	118.710478291	0	0	1	0.997885497366	-21.4762870366	345	1	1.05	0.95	;
	9	1	300.538460409	30.0538460409	0	0	1	1.00184297311	-20.9573117745	154	1	1.1	0.9	;
	10	2	660.271138796	66.0271138796	0	0	1	0.998833665658	-21.4071071455	154	1	1.1	0.9	;
	11	1	546.890302653	54.6890302653	0	0	1	0.998366784062	-21.6724451105	345	1	1.05	0.95	;
	12	1	300.085269369	30.0085269369	0	0	1	1.0017245894	-20.9756569757	154	1	1.1	0.9	;
	13	1	323.439315833	32.3439315833	0	0	1	1.00195075989	-20.96067951	154	1	1.1	0.9	;
	14	1	346.864752647	34.6864752647	0	0	1	1.00175001373	-20.9947795901	345	1	1.05	0.95	;
	15	1	102.6093555	10.26093555	0	0	1	1.00246277076	-20.8917891296	154	1	1.1	0.9	;
	16	1	442.045146484	44.2045146484	0	0	1	1.00279281057	-20.8580486039	345	1	1.05	0.95	;
	17	1	476.660869413	47.6660869413	0	0	1	1.00245470863	-20.9336342587	345	1	1.05	0.95	;
	18	1	497.653728771	49.7653728771	0	0	1	1.00226163916	-20.96365305	345	1	1.05	0.95	;
	19	2	468.48883309	46.850806468	0	0	1	1.00180847129	-20.9991248226	345	1	1.05	0.95	;
	20	1	239.420588844	24.1946459986	0	0	1	1.00049207312	-20.9298872942	154	1	1.1	0.9	;
	21	2	729.345494271	73.0301578994	0	0	1	1.00013011897	-21.4027752078	345	1	1.05	0.95	;
	22	1	589.735929206	58.9735929206	0	0	1	1.00271361175	-20.8530467042	345	1	1.05	0.95	;
	23	1	345.108402308	34.5108402308	0	0	1	1.00125494359	-21.0434242677	345	1	1.05	0.95	;
	24	1	564.60431006	56.460431006	0	0	1	1.00080255883	-21.2429516427	154	1	1.1	0.9	;
	25	1	456.580167836	45.6580167836	0	0	1	1.00054952721	-21.3468870291	154	1	1.1	0.9	;
	26	1	538.896061057	53.8896061057	0	0	1	1.00148161996	-21.1709214606	345	1	1.05	0.95	;
	27	2	12.1450694189	3.06964397741	0	0	1	1.00213981861	-20.9926106252	345	1	1.05	0.95	;
	28	1	122.173870601	12.2173870601	0	0	1	0.998080571988	-15.9693213042	765	1	1.05	0.95	;
	29	1	594.156615162	59.4156892425	0	0	1	1.00207077018	-20.9055161284	345	1	1.05	0.95	;
	30	1	461.648681145	46.1648681145	0	0	1	1.00201613125	-20.9083253678	154	1	1.1	0.9	;
	31	1	375.452350632	37.5453263082	0	0	1	1.00052424871	-21.1086625276	154	1	1.1	0.9	;
	32	1	154.800469014	15.4800469014	0	0	1	1.00120284222	-21.0547204544	345	1	1.05	0.95	;
	33	1	446.395122309	44.6395122309	0	0	1	1.00093615134	-21.0716964454	154	1	1.1	0.9	;
	34	2	998.315423777	99.831606042	0	0	1	1.0019190515	-21.0783328997	345	1	1.05	0.95	;
	35	1	608.182644711	60.8182644711	0	0	1	0.998002838804	-21.1118708616	154	1	1.1	0.9	;
	36	2	701.608165714	70.1608165714	0	0	1	1.00237523508	-20.8711464415	345	1	1.05	0.95	;
	37	1	860.157870504	86.0157870504	0	0	1	1.00131462685	-20.8147785649	345	1	1.05	0.95	;
	38	1	348.373755238	34.8373755238	0	0	1	0.999334334309	-19.748805455	345	1	1.05	0.95	;
	39	1	672.111056941	67.2111056941	0	0	1	0.995037875629	-22.256820669	154	1	1.1	0.9	;
	40	2	1017.48694451	101.880589653	0	0	1	1.00265648058	-19.5497503414	345	1	1.05	0.95	;
	41	1	184.085891634	18.4085891634	0	0	1	0.986080306361	-16.8317368159	154	1	1.1	0.9	;
	42	2	1123.47831895	112.347831895	0	0	1	0.991579132954	-18.5147590472	154	1	1.1	0.9	;
	43	1	585.565005832	58.5568223754	0	0	1	0.998477903633	-21.520291966	154	1	1.1	0.9	;
	44	1	180.662811475	18.0664326144	0	0	1	1.00252722643	-20.344454193	345	1	1.05	0.95	;
	45	1	330.787484844	33.0787484844	0	0	1	1.00858761985	-19.3582421798	345	1	1.05	0.95	;
	46	1	1040.61010754	104.061010754	0	0	1	1.00660425054	-19.7434918032	345	1	1.05	0.95	;
	47	1	2635.70461971	263.570529574	0	0	1	0.998748746115	-20.5634702443	345	1	1.05	0.95	;
	48	1	183.852177227	18.3852177227	0	0	1	1.01091969527	-19.1978135477	154	1	1.1	0.9	;
	49	1	376.148630603	37.6148630603	0	0	1	1.01646571671	-18.2070701636	154	1	1.1	0.9	;
	50	1	447.306675657	44.7306675657	0	0	1	1.01872552654	-17.2162163205	765	1	1.05	0.95	;
	51	1	1792.02308208	179.202308208	0	0	1	1.02858326633	-16.859380012	345	1	1.05	0.95	;
	52	1	412.397130736	41.2397130736	0	0	2	0.999240673902	-17.5453444932	154	1	1.1	0.9	;
	53	2	855.887747101	85.5887747101	0	0	2	1.03468334653	-13.273455739	765	1	1.05	0.95	;
	54	1	367.739545934	36.7739545934	0	0	2	1.01601340222	-17.0902610206	345	1	1.05	0.95	;
	55	1	1070.42542395	107.042582009	0	0	2	1.02235127853	-15.732564007	345	1	1.05	0.95	;
	56	1	148.720200663	14.8720200663	0	0	2	1.00655065431	-17.7253390874	154	1	1.1	0.9	;
	57	1	1685.44639138	168.544669315	0	0	2	1.01879608689	-15.8734790702	345	1	1.05	0.95	;
	58	1	1261.6780415	126.167888639	0	0	2	1.03133697162	-10.9967918742	345	1	1.05	0.95	;
	59	2	114.559836273	11.4564317547	0	0	2	1.03369506214	-9.14193964346	345	1	1.05	0.95	;
	60	1	166.840790547	16.6840790547	0	0	2	1.01952981327	-14.0118871265	345	1	1.05	0.95	;
	61	1	798.741226603	79.8741283718	0	0	2	1.01714747939	-16.8360524038	154	1	1.1	0.9	;
	62	1	940.120099975	94.0120367099	0	0	2	1.01937228923	-16.3702504682	765	1	1.05	0.95	;
	63	1	130.248434735	13.0248434735	0	0	2	1.02872716193	-13.4606032603	765	1	1.05	0.95	;
	64	1	474.585042225	47.4585042225	0	0	2	1.01188063549	-15.128157501	345	1	1.05	0.95	;
	65	1	79.4950918495	11.2864045234	0	0	3	0.972525104459	2.36252677626	154	1	1.1	0.9	;
	66	1	27.3918802296	3.26034284506	0	0	3	0.970092140437	-14.9554399892	154	1	1.1	0.9	;
	67	1	23.3072644938	2.58316206595	0	0	3	0.960603662144	-8.87170996631	154	1	1.1	0.9	;
	68	1	37.859029187	4.07839028201	0	0	3	0.982850782847	5.49641850984	345	1	1.05	0.95	;
	69	1	40.2228920662	4.24376337294	0	0	3	0.960706296505	-4.55572593247	154	1	1.1	0.9	;
	70	1	234.003673448	23.4063702849	0	0	3	0.967253980619	-15.9336775823	154	1	1.1	0.9	;
	71	2	263.970953542	26.3970953542	0	0	3	0.996385121506	9.22999514598	345	1	1.05	0.95	;
	72	1	92.1602395563	9.21602395563	0	0	3	0.96021549107	-12.0019669434	154	1	1.1	0.9	;
	73	2	291.515768503	29.9287685374	0	0	3	0.997443272726	8.91841519142	345	1	1.05	0.95	;
	74	1	73.3286688333	8.51130114249	0	0	3	0.961079290298	-10.8065201092	154	1	1.1	0.9	;
	75	2	169.990069483	17.6635976266	0	0	3	1.00257094668	10.5421134042	345	1	1.05	0.95	;
	76	1	75.1237682618	7.86321377752	0	0	3	0.976756395506	2.04904109061	154	1	1.1	0.9	;
	77	1	324.27377029	32.427377029	0	0	3	0.963661919112	-12.0919858788	154	1	1.1	0.9	;
	78	1	12.657471192	7.84827754643	0	0	3	0.965708741559	-3.7800934546	154	1	1.1	0.9	;
	79	1	143.06115552	14.306115552	0	0	3	0.97171666975	-1.53695459011	154	1	1.1	0.9	;
	80	1	-292.916635745	3.7960861122	0	0	3	0.984602231869	1.5040321402	765	1	1.05	0.95	;
	81	1	207.201344229	20.7202328452	0	0	3	0.971443349691	-4.51892780193	345	1	1.05	0.95	;
	82	2	60.5160233247	9.00928744417	0	0	3	0.992130108404	6.25547815977	765	1	1.05	0.95	;
	83	1	236.922852692	23.692354785	0	0	3	0.965612800611	-5.43812205063	154	1	1.1	0.9	;
	84	1	334.644052671	34.5601754618	0	0	3	0.981937180512	-15.0298785704	345	1	1.05	0.95	;
	85	1	223.140912275	22.3140912275	0	0	3	0.974212824766	-3.05255012325	154	1	1.1	0.9	;
	86	1	218.514879889	21.8515113153	0	0	3	0.976867839085	-3.86086484751	345	1	1.05	0.95	;
	87	1	26.5538344528	4.99898998904	0	0	3	0.977808411326	-5.24040973851	345	1	1.05	0.95	;
	88	1	-143.30533877	1.40563769328	0	0	3	0.980859168417	-4.30667263615	154	1	1.1	0.9	;
	89	1	75.8233156919	7.58240054444	0	0	3	0.973824032838	-8.70156120108	154	1	1.1	0.9	;
	90	1	146.700929178	15.1853384066	0	0	3	0.977154538019	-5.63901999659	154	1	1.1	0.9	;
	91	1	50.8332865359	5.08332865359	0	0	3	1.00049252977	-14.5582744462	154	1	1.1	0.9	;
	92	1	-4.03912256914	2.57993170302	0	0	3	0.979211368934	-5.7675758204	345	1	1.05	0.95	;
	93	1	100.584994938	10.0586248372	0	0	3	0.979498877177	-11.3469765265	154	1	1.1	0.9	;
	94	1	-12.8322036535	3.71808728674	0	0	3	0.97810545447	-4.4120430336	154	1	1.1	0.9	;
	95	1	57.1347776621	5.71347776621	0	0	3	0.979011889957	-7.38279518576	345	1	1.05	0.95	;
	96	1	147.817243708	14.7817243708	0	0	4	1.01193638225	-13.457484911	154	1	1.1	0.9	;
	97	1	45.9941894379	4.59941894379	0	0	4	1.01752001449	-11.0708602577	345	1	1.05	0.95	;
	98	1	234.600762269	23.7127846478	0	0	4	1.0051451812	-15.3743267029	154	1	1.1	0.9	;
	99	1	760.809569738	76.0809569738	0	0	4	1.00261653761	-15.8007566933	154	1	1.1	0.9	;
	100	2	178.294005371	17.8294005371	0	0	4	1.02142691531	-8.97019550678	345	1	1.05	0.95	;
	101	1	278.06205184	27.806205184	0	0	4	1.00241482912	-15.4560257219	154	1	1.1	0.9	;
	102	1	81.8604859238	8.18604859238	0	0	4	1.00918044604	-13.6147535032	345	1	1.05	0.95	;
	103	1	85.8173782937	8.58173782937	0	0	4	1.01355275371	-11.2343219589	154	1	1.1	0.9	;
	104	1	181.291459803	18.1291459803	0	0	4	1.01156586323	-12.4565884667	345	1	1.05	0.95	;
	105	1	121.532096211	12.1532096211	0	0	4	1.00484622644	-13.7575382289	154	1	1.1	0.9	;
	106	2	143.831002718	14.3831002718	0	0	4	1.00475255192	-9.43046293743	154	1	1.1	0.9	;
	107	1	3.46337665049	2.73098642854	0	0	4	1.00415561231	-12.9541224172	345	1	1.05	0.95	;
	108	1	746.524649665	74.6524649665	0	0	4	1.00311876999	-10.3135360844	345	1	1.05	0.95	;
	109	1	390.931066862	39.0931066862	0	0	4	1.00377381609	-10.3588831501	345	1	1.05	0.95	;
	110	1	228.776854615	22.8776854615	0	0	4	0.994084720389	-11.5927291868	154	1	1.1	0.9	;
	111	1	144.875665823	14.4875665823	0	0	4	1.0016430055	-8.71054560255	345	1	1.05	0.95	;
	112	1	26.7838053911	2.67838053911	0	0	4	0.993228359232	-12.1628163962	154	1	1.1	0.9	;
	113	1	569.329840761	56.9329840761	0	0	4	0.992878632858	-11.2659594735	154	1	1.1	0.9	;
	114	1	62.9417132872	6.29761603389	0	0	4	0.999058177245	-8.75850707068	154	1	1.1	0.9	;
	115	1	27.4614428536	2.74614428536	0	0	4	0.992740294113	-12.3691723159	154	1	1.1	0.9	;
	116	1	38.7665042339	3.8766504234	0	0	4	0.996980936359	-9.57380966628	154	1	1.1	0.9	;
	117	1	222.986319603	23.4077604826	0	0	4	0.997103121389	-8.27725279989	154	1	1.1	0.9	;
	118	1	85.0129440494	8.50129440494	0	0	4	1.00324558752	-3.71665239475	154	1	1.1	0.9	;
	119	1	85.643972949	8.5643972949	0	0	4	1.00292493437	-7.4235243773	345	1	1.05	0.95	;
	120	1	35.1160598067	3.51160598067	0	0	4	0.995910894307	-8.70006641076	154	1	1.1	0.9	;
	121	1	81.7213989877	8.17213989877	0	0	4	0.995431408814	-6.450464825	154	1	1.1	0.9	;
	122	1	67.673416969	6.7673416969	0	0	4	0.997455402983	-7.52412635705	154	1	1.1	0.9	;
	123	1	55.0408174598	5.50408174598	0	0	4	0.996562031926	-8.46492780386	154	1	1.1	0.9	;
	124	2	106.965039867	10.6965039867	0	0	4	1.01088272629	-0.696055391523	345	1	1.05	0.95	;
	125	1	22.7810432109	2.27810432109	0	0	4	0.996208692832	-8.63276506983	154	1	1.1	0.9	;
	126	1	379.519020697	37.9519020697	0	0	4	0.99873908199	-6.72710401232	345	1	1.05	0.95	;
	127	1	299.058806438	29.9058806438	0	0	4	0.996513844543	-7.54763169952	154	1	1.1	0.9	;
	128	1	451.848391319	45.1848391319	0	0	4	0.987667745692	-9.50781508368	154	1	1.1	0.9	;
	129	1	53.4813110658	5.34813110658	0	0	4	0.991581317849	-11.4193111294	154	1	1.1	0.9	;
	130	1	64.9749071904	6.76554182733	0	0	4	0.997605425681	-7.66360167713	345	1	1.05	0.95	;
	131	1	173.377876542	17.3377876542	0	0	4	0.992552549408	-9.23174727169	154	1	1.1	0.9	;
	132	1	93.0699796026	9.30699796025	0	0	4	0.992228388844	-11.2273391712	154	1	1.1	0.9	;
	133	1	271.621559809	27.8563396107	0	0	4	0.996793363848	-8.51145213771	345	1	1.05	0.95	;
	134	1	634.653219069	63.4653219069	0	0	4	0.997820903218	-7.91603316229	345	1	1.05	0.95	;
	135	1	134.637538705	13.4689411429	0	0	4	0.991787215671	-11.2059337408	154	1	1.1	0.9	;
	136	1	154.886365775	15.4886365775	0	0	4	0.996254645682	-9.19255403598	345	1	1.05	0.95	;
	137	2	1841.60669667	184.328021103	0	0	4	0.994762262028	-8.85485722046	345	1	1.05	0.95	;
	138	1	39.832053885	3.9832053885	0	0	4	0.995132828226	-9.83764051382	154	1	1.1	0.9	;
	139	1	42.2594600736	4.22594600735	0	0	4	0.992317039982	-11.4245112275	154	1	1.1	0.9	;
	140	1	46.7912502463	4.88686751693	0	0	4	0.993721500552	-10.3568609706	154	1	1.1	0.9	;
	141	1	50.7961474361	5.07961474361	0	0	4	0.993324114513	-10.4894975055	154	1	1.1	0.9	;
	142	1	69.0211700509	6.90211700509	0	0	4	0.995371076784	-9.62958489425	154	1	1.1	0.9	;
	143	1	99.2318083772	9.92384952901	0	0	4	0.991362396101	-11.1011503098	154	1	1.1	0.9	;
	144	1	45.6273449593	4.56506695548	0	0	4	0.991357399978	-11.4901925645	154	1	1.1	0.9	;
	145	1	135.075965828	14.1804671944	0	0	4	0.985204909507	-12.830119352	154	1	1.1	0.9	;
	146	1	38.1851826667	4.14745691892	0	0	5	0.976080235335	-9.89782689707	154	1	1.1	0.9	;
	147	1	56.2208737385	5.62208737385	0	0	5	1.0022242997	-13.8322253981	154	1	1.1	0.9	;
	148	1	304.386286056	30.4386286056	0	0	5	0.970614503813	-14.8504740429	154	1	1.1	0.9	;
	149	1	1204.18393333	120.418393333	0	0	5	0.975516623119	-13.3333128934	345	1	1.05	0.95	;
	150	1	661.810066858	66.9644631192	0	0	5	0.979268702584	-10.2335046493	345	1	1.05	0.95	;
	151	1	557.203375925	56.5955286789	0	0	5	0.981255979786	-10.4352986163	345	1	1.05	0.95	;
	152	1	253.644336185	25.3644336185	0	0	5	0.981121872913	-12.1471765052	345	1	1.05	0.95	;
	153	1	198.757985144	19.8757985144	0	0	5	0.978318765636	-12.3524549572	154	1	1.1	0.9	;
	154	1	136.043242915	13.6043343167	0	0	5	0.976652057211	-13.316977831	154	1	1.1	0.9	;
	155	1	381.208421387	38.1210293662	0	0	5	0.97616566562	-13.4837346502	154	1	1.1	0.9	;
	156	1	410.687724756	41.0687724756	0	0	5	0.979821154528	-12.4303565469	154	1	1.1	0.9	;
	157	1	193.337489878	19.3337489878	0	0	5	0.975952255836	-13.5625517816	154	1	1.1	0.9	;
	158	1	424.777443747	50.57971312	0	0	5	0.980165491364	-10.9861712996	154	1	1.1	0.9	;
	159	1	351.786254221	35.1786254221	0	0	5	0.983143014187	-11.5262889704	345	1	1.05	0.95	;
	160	1	1003.98800015	100.398800015	0	0	5	0.975269027529	-13.8091988055	154	1	1.1	0.9	;
	161	1	165.551264589	16.5551264589	0	0	5	0.991034827227	-10.558488932	345	1	1.05	0.95	;
	162	1	59.7360593106	5.97360593106	0	0	5	0.990663060416	-10.682148085	154	1	1.1	0.9	;
	163	1	62.8305589495	6.28305589495	0	0	5	0.988312137123	-10.170137815	345	1	1.05	0.95	;
	164	1	50.3271415133	5.28396709948	0	0	5	0.990412093676	-10.8405950431	154	1	1.1	0.9	;
	165	1	1540.70466814	154.070521164	0	0	5	0.985211986047	-10.3007814332	345	1	1.05	0.95	;
	166	2	494.166638012	49.4876355405	0	0	5	0.993549167795	-7.7508487738	345	1	1.05	0.95	;
	167	1	2056.27138198	205.627207517	0	0	5	0.992268166581	-8.10597634405	345	1	1.05	0.95	;
	168	1	130.949107841	13.0949107841	0	0	5	0.994728633046	-8.64903268581	765	1	1.05	0.95	;
	169	1	36.903706385	3.6903706385	0	0	5	0.992236067288	-9.90572637732	154	1	1.1	0.9	;
	170	1	145.386815303	16.2161935569	0	0	5	0.989121557626	-9.15127706042	154	1	1.1	0.9	;
	171	1	25.8498430645	4.5395128371	0	0	5	0.996970356232	-7.52635364028	345	1	1.05	0.95	;
	172	1	471.224190036	47.8754560978	0	0	5	0.989289124622	-8.41739469051	154	1	1.1	0.9	;
	173	1	48.278016695	4.96800268228	0	0	5	0.996251857594	-7.44649285833	345	1	1.05	0.95	;
	174	1	360.248663385	36.0248663385	0	0	5	0.993068769675	-7.11244271165	345	1	1.05	0.95	;
	175	2	163.154087282	16.3336484784	0	0	5	1.00138234897	-5.22751404794	765	1	1.05	0.95	;
	176	1	473.314320874	47.3314320874	0	0	5	0.991115253677	-6.46748359495	345	1	1.05	0.95	;
	177	1	605.180502112	60.5181227879	0	0	5	0.989020944174	-7.22556295577	345	1	1.05	0.95	;
	178	1	684.070797829	68.4071123095	0	0	5	0.983180287237	-9.02918581013	154	1	1.1	0.9	;
	179	1	365.12610845	36.512610845	0	0	5	0.996442479025	-6.5471161544	345	1	1.05	0.95	;
	180	1	341.500872682	34.1500872682	0	0	5	0.992439549994	-6.3969782803	154	1	1.1	0.9	;
	181	1	309.592543115	30.9592543115	0	0	5	0.994775961335	-6.94904988254	345	1	1.05	0.95	;
	182	1	558.916222166	55.891759528	0	0	5	0.984646672464	-8.61125956928	345	1	1.05	0.95	;
	183	1	252.8374931	25.283795432	0	0	5	0.989025886728	-6.6523283854	345	1	1.05	0.95	;
	184	1	499.560535793	49.9561657678	0	0	5	0.996187553952	-6.62384513816	345	1	1.05	0.95	;
	185	1	285.491819415	28.5491819415	0	0	5	0.994248034928	-7.12012950713	154	1	1.1	0.9	;
	186	1	427.509120606	42.751213991	0	0	5	0.993745511273	-7.27218124981	345	1	1.05	0.95	;
	187	1	59.0852855731	5.90852855731	0	0	5	0.993720228878	-7.28037497522	345	1	1.05	0.95	;
	188	1	53.9582866338	5.3962641858	0	0	5	0.998648822112	-6.78076698557	154	1	1.1	0.9	;
	189	1	98.3414977685	9.85035037749	0	0	5	0.997490556933	-0.900545032984	154	1	1.1	0.9	;
	190	3	176.493318394	17.6752900628	0	0	5	1	0	345	1	1.05	0.95	;
	191	1	246.001507908	24.6002882457	0	0	5	0.99509487663	-1.32377136634	154	1	1.1	0.9	;
	192	2	122.879305297	12.2879983612	0	0	5	1.00000924136	0.238930812895	154	1	1.1	0.9	;
	193	2	35.0503108398	3.50503108398	0	0	5	1.00651224611	-4.37624273327	345	1	1.05	0.95	;
];

% generator data
%	bus	Pg	Qg	Qmax	Qmin	Vg	mBase	status	Pmax	Pmin	Pc1	Pc2	Qc1min	Qc1max	Qc2min	Qc2max	ramp_agc	ramp_10	ramp_30	ramp_q	apf
mpc.gen = [
	3	0	0	362.5	-362.5	0.995519734686	100	0	725	377	0	0	0	0	0	0	0	120.8333333	362.5	362.5	0	;
	3	0	0	362.5	-362.5	0.995519734686	100	0	725	377	0	0	0	0	0	0	0	120.8333333	362.5	362.5	0	;
	3	0	0	437.1	-437.1	0.995519734686	100	0	874.2	454.584	0	0	0	0	0	0	0	145.7	437.1	437.1	0	;
	4	0	0	262.15	-262.15	0.996321213264	100	0	524.3	272.636	0	0	0	0	0	0	0	87.38333333	262.15	262.15	0	;
	4	0	0	429.2	-429.2	0.996321213264	100	0	858.4	446.368	0	0	0	0	0	0	0	143.0666667	429.2	429.2	0	;
	4	0	0	429.2	-429.2	0.996321213264	100	0	858.4	446.368	0	0	0	0	0	0	0	143.0666667	429.2	429.2	0	;
	8	0	0	423.8	-423.8	0.997885497366	100	0	847.6	440.752	0	0	0	0	0	0	0	141.2666667	423.8	423.8	0	;
	8	0	0	423.8	-423.8	0.997885497366	100	0	847.6	440.752	0	0	0	0	0	0	0	141.2666667	423.8	423.8	0	;
	8	0	0	257.75	-257.75	0.997885497366	100	0	515.5	268.06	0	0	0	0	0	0	0	85.91666667	257.75	257.75	0	;
	9	0	0	57.705	-57.705	1.00184297311	100	0	115.41	60.0132	0	0	0	0	0	0	0	19.235	57.705	57.705	0	;
	9	0	0	18.5	-18.5	1.00184297311	100	0	37	19.24	0	0	0	0	0	0	0	6.166666667	18.5	18.5	0	;
	10	0	0	300	-300	0.998833665658	100	0	600	312	0	0	0	0	0	0	0	100	300	300	0	;
	10	278.571718847	6.37864269037	150	-150	0.998833665658	100	1	300	156	0	0	0	0	0	0	0	50	150	150	0	;
	19	0	0	184.5865	-184.5865	1.00180847129	100	0	369.173	191.96996	0	0	0	0	0	0	0	61.52883333	184.5865	184.5865	0	;
	19	344.610417672	8.78643962658	184.5865	-184.5865	1.00180847129	100	1	369.173	191.96996	0	0	0	0	0	0	0	61.52883333	184.5865	184.5865	0	;
	20	0	0	181.9055	-181.9055	1.00049207312	100	0	363.811	189.18172	0	0	0	0	0	0	0	60.63516667	181.9055	181.9055	0	;
	21	426.507532379	12.1076428293	225	-225	1.00013011897	100	1	450	234	0	0	0	0	0	0	0	75	225	225	0	;
	21	0	0	225	-225	1.00013011897	100	0	450	234	0	0	0	0	0	0	0	75	225	225	0	;
	21	0	0	225	-225	1.00013011897	100	0	450	234	0	0	0	0	0	0	0	75	225	225	0	;
	21	0	0	225	-225	1.00013011897	100	0	450	234	0	0	0	0	0	0	0	75	225	225	0	;
	24	0	0	10.5	-10.5	1.00080255883	100	0	21	10.92	0	0	0	0	0	0	0	3.5	10.5	10.5	0	;
	26	0	0	225	-225	1.00148161996	100	0	450	234	0	0	0	0	0	0	0	75	225	225	0	;
	27	0	0	63.5	-63.5	1.00213981861	100	0	127	66.04	0	0	0	0	0	0	0	21.16666667	63.5	63.5	0	;
	27	163.214451825	-5.69304718264	93.65	-93.65	1.00213981861	100	1	187.3	97.396	0	0	0	0	0	0	0	31.21666667	93.65	93.65	0	;
	34	199.722633804	-2.35602813102	112.5	-112.5	1.0019190515	100	1	225	117	0	0	0	0	0	0	0	37.5	112.5	112.5	0	;
	34	199.722633804	-2.35602813102	112.5	-112.5	1.0019190515	100	1	225	117	0	0	0	0	0	0	0	37.5	112.5	112.5	0	;
	34	0	0	112.5	-112.5	1.0019190515	100	0	225	117	0	0	0	0	0	0	0	37.5	112.5	112.5	0	;
	34	199.722633804	-2.35602813102	112.5	-112.5	1.0019190515	100	1	225	117	0	0	0	0	0	0	0	37.5	112.5	112.5	0	;
	34	0	0	112.5	-112.5	1.0019190515	100	0	225	117	0	0	0	0	0	0	0	37.5	112.5	112.5	0	;
	34	199.722633804	-2.35602813102	112.5	-112.5	1.0019190515	100	1	225	117	0	0	0	0	0	0	0	37.5	112.5	112.5	0	;
	34	0	0	112.5	-112.5	1.0019190515	100	0	225	117	0	0	0	0	0	0	0	37.5	112.5	112.5	0	;
	34	0	0	112.5	-112.5	1.0019190515	100	0	225	117	0	0	0	0	0	0	0	37.5	112.5	112.5	0	;
	34	0	0	251.7695	-251.7695	1.0019190515	100	0	503.539	261.84028	0	0	0	0	0	0	0	83.92316667	251.7695	251.7695	0	;
	34	0	0	254.454	-254.454	1.0019190515	100	0	508.908	264.63216	0	0	0	0	0	0	0	84.818	254.454	254.454	0	;
	34	0	0	225	-225	1.0019190515	100	0	450	234	0	0	0	0	0	0	0	75	225	225	0	;
	34	424.379450499	10.5330767585	225	-225	1.0019190515	100	1	450	234	0	0	0	0	0	0	0	75	225	225	0	;
	34	0	0	225	-225	1.0019190515	100	0	450	234	0	0	0	0	0	0	0	75	225	225	0	;
	34	549.292622114	13.7877859055	287.3	-287.3	1.0019190515	100	1	574.6	298.792	0	0	0	0	0	0	0	95.76666667	287.3	287.3	0	;
	34	549.292622114	13.7877859055	287.3	-287.3	1.0019190515	100	1	574.6	298.792	0	0	0	0	0	0	0	95.76666667	287.3	287.3	0	;
	34	0	0	187.8	-187.8	1.0019190515	100	0	375.6	195.312	0	0	0	0	0	0	0	62.6	187.8	187.8	0	;
	34	0	0	187.8	-187.8	1.0019190515	100	0	375.6	195.312	0	0	0	0	0	0	0	62.6	187.8	187.8	0	;
	34	0	0	187.8	-187.8	1.0019190515	100	0	375.6	195.312	0	0	0	0	0	0	0	62.6	187.8	187.8	0	;
	36	0	0	286.895	-286.895	1.00237523508	100	0	573.79	298.3708	0	0	0	0	0	0	0	95.63166667	286.895	286.895	0	;
	36	323.247377335	14.5671038468	174.137	-174.137	1.00237523508	100	1	348.274	181.10248	0	0	0	0	0	0	0	58.04566667	174.137	174.137	0	;
	36	0	0	206.3	-206.3	1.00237523508	100	0	412.6	214.552	0	0	0	0	0	0	0	68.76666667	206.3	206.3	0	;
	36	124.777289213	-7.48838507271	73.157	-73.157	1.00237523508	100	1	146.314	76.08328	0	0	0	0	0	0	0	24.38566667	73.157	73.157	0	;
	37	0	0	12	-12	1.00131462685	100	0	24	12.48	0	0	0	0	0	0	0	4	12	12	0	;
	39	0	0	240.845	-240.845	0.995037875629	100	0	481.69	250.4788	0	0	0	0	0	0	0	80.28166667	240.845	240.845	0	;
	39	0	0	240.845	-240.845	0.995037875629	100	0	481.69	250.4788	0	0	0	0	0	0	0	80.28166667	240.845	240.845	0	;
	40	0	0	30	-30	1.00265648058	100	0	60	31.2	0	0	0	0	0	0	0	10	30	30	0	;
	40	0	0	375.6	-375.6	1.00265648058	100	0	751.2	390.624	0	0	0	0	0	0	0	125.2	375.6	375.6	0	;
	40	776.91635234	22.1235922997	400	-400	1.00265648058	100	1	800	320	0	0	0	0	0	0	0	88	264	400	0	;
	40	776.91635234	22.1235922997	400	-400	1.00265648058	100	1	800	320	0	0	0	0	0	0	0	88	264	400	0	;
	40	846.965376812	22.8482216309	435	-435	1.00265648058	100	1	870	348	0	0	0	0	0	0	0	95.7	287.1	435	0	;
	40	846.965376812	22.8482216309	435	-435	1.00265648058	100	1	870	348	0	0	0	0	0	0	0	95.7	287.1	435	0	;
	40	846.965376812	22.8482216309	435	-435	1.00265648058	100	1	870	348	0	0	0	0	0	0	0	95.7	287.1	435	0	;
	40	846.965376812	22.8482216309	435	-435	1.00265648058	100	1	870	348	0	0	0	0	0	0	0	95.7	287.1	435	0	;
	43	0	0	72.394	-72.394	0.998477903633	100	0	144.788	75.28976	0	0	0	0	0	0	0	24.13133333	72.394	72.394	0	;
	43	0	0	19.45	-19.45	0.998477903633	100	0	38.9	20.228	0	0	0	0	0	0	0	6.483333333	19.45	19.45	0	;
	45	0	0	255.9	-255.9	1.00858761985	100	0	511.8	266.136	0	0	0	0	0	0	0	85.3	255.9	255.9	0	;
	47	0	0	0	0	0.998748746115	100	0	0	0	0	0	0	0	0	0	0	0	0	0	0	;
	47	0	0	0	0	0.998748746115	100	0	0	0	0	0	0	0	0	0	0	0	0	0	0	;
	47	0	0	0	0	0.998748746115	100	0	0	0	0	0	0	0	0	0	0	0	0	0	0	;
	47	0	0	0	0	0.998748746115	100	0	0	0	0	0	0	0	0	0	0	0	0	0	0	;
	47	0	0	434.25	-434.25	0.998748746115	100	0	868.5	451.62	0	0	0	0	0	0	0	144.75	434.25	434.25	0	;
	47	0	0	431.65	-431.65	0.998748746115	100	0	863.3	448.916	0	0	0	0	0	0	0	143.8833333	431.65	431.65	0	;
	48	0	0	218.05	-218.05	1.01091969527	100	0	436.1	226.772	0	0	0	0	0	0	0	72.68333333	218.05	218.05	0	;
	48	0	0	189.19	-189.19	1.01091969527	100	0	378.38	196.7576	0	0	0	0	0	0	0	63.06333333	189.19	189.19	0	;
	48	0	0	189.19	-189.19	1.01091969527	100	0	378.38	196.7576	0	0	0	0	0	0	0	63.06333333	189.19	189.19	0	;
	49	0	0	384.915	-384.915	1.01646571671	100	0	769.83	400.3116	0	0	0	0	0	0	0	128.305	384.915	384.915	0	;
	53	0	0	250.375	-250.375	1.03468334653	100	0	500.75	260.39	0	0	0	0	0	0	0	83.45833333	250.375	250.375	0	;
	53	0	0	266.5	-266.5	1.03468334653	100	0	533	277.16	0	0	0	0	0	0	0	88.83333333	266.5	266.5	0	;
	53	0	0	191	-191	1.03468334653	100	0	382	198.64	0	0	0	0	0	0	0	63.66666667	191	191	0	;
	53	0	0	423	-423	1.03468334653	100	0	846	439.92	0	0	0	0	0	0	0	141	423	423	0	;
	53	475.213299448	-1.40161737625	250	-250	1.03468334653	100	1	500	200	0	0	0	0	0	0	0	55	165	250	0	;
	53	474.36123109	-1.40161737625	250	-250	1.03468334653	100	1	500	200	0	0	0	0	0	0	0	55	165	250	0	;
	53	474.36123109	-1.40161737625	250	-250	1.03468334653	100	1	500	200	0	0	0	0	0	0	0	55	165	250	0	;
	53	474.36123109	-1.40161737625	250	-250	1.03468334653	100	1	500	200	0	0	0	0	0	0	0	55	165	250	0	;
	53	475.213299448	-1.40161737625	250	-250	1.03468334653	100	1	500	200	0	0	0	0	0	0	0	55	165	250	0	;
	53	474.36123109	-1.40161737625	250	-250	1.03468334653	100	1	500	200	0	0	0	0	0	0	0	55	165	250	0	;
	53	474.36123109	-1.40161737625	250	-250	1.03468334653	100	1	500	200	0	0	0	0	0	0	0	55	165	250	0	;
	53	474.36123109	-1.40161737625	250	-250	1.03468334653	100	1	500	200	0	0	0	0	0	0	0	55	165	250	0	;
	53	994.173352196	1.44758170661	510	-510	1.03468334653	100	1	1020	408	0	0	0	0	0	0	0	112.2	336.6	510	0	;
	53	993.022318848	1.44758170661	510	-510	1.03468334653	100	1	1020	408	0	0	0	0	0	0	0	112.2	336.6	510	0	;
	57	0	0	50.85	-50.85	1.01879608689	100	0	101.7	52.884	0	0	0	0	0	0	0	16.95	50.85	50.85	0	;
	58	0	0	232.9	-232.9	1.03133697162	100	0	465.8	242.216	0	0	0	0	0	0	0	77.63333333	232.9	232.9	0	;
	59	0	0	173.165	-173.165	1.03369506214	100	0	346.33	180.0916	0	0	0	0	0	0	0	57.72166667	173.165	173.165	0	;
	59	0	0	0	0	1.03369506214	100	0	0	0	0	0	0	0	0	0	0	0	0	0	0	;
	59	471.097001963	-5.8762019178	250	-250	1.03369506214	100	1	500	200	0	0	0	0	0	0	0	55	165	250	0	;
	59	471.097001963	-5.8762019178	250	-250	1.03369506214	100	1	500	200	0	0	0	0	0	0	0	55	165	250	0	;
	59	473.665911468	-5.8762019178	250	-250	1.03369506214	100	1	500	200	0	0	0	0	0	0	0	55	165	250	0	;
	59	471.097001963	-5.8762019178	250	-250	1.03369506214	100	1	500	200	0	0	0	0	0	0	0	55	165	250	0	;
	59	471.097001963	-5.8762019178	250	-250	1.03369506214	100	1	500	200	0	0	0	0	0	0	0	55	165	250	0	;
	59	471.097001963	-5.8762019178	250	-250	1.03369506214	100	1	500	200	0	0	0	0	0	0	0	55	165	250	0	;
	59	467.805410866	-5.8762019178	250	-250	1.03369506214	100	1	500	200	0	0	0	0	0	0	0	55	165	250	0	;
	59	1021.33561629	-4.34037456756	525	-525	1.03369506214	100	1	1050	420	0	0	0	0	0	0	0	115.5	346.5	525	0	;
	59	1021.33561629	-4.34037456756	525	-525	1.03369506214	100	1	1050	420	0	0	0	0	0	0	0	115.5	346.5	525	0	;
	62	0	0	0	0	1.01937228923	100	0	0	0	0	0	0	0	0	0	0	0	0	0	0	;
	64	0	0	265.2205	-265.2205	1.01188063549	100	0	530.441	275.82932	0	0	0	0	0	0	0	88.40683333	265.2205	265.2205	0	;
	70	0	0	215.6	-215.6	0.967253980619	100	0	431.2	224.224	0	0	0	0	0	0	0	71.86666667	215.6	215.6	0	;
	71	985.438383603	86.9904063545	520	-520	0.996385121506	100	1	1040	416	0	0	0	0	0	0	0	114.4	343.2	520	0	;
	73	173.649559433	28.8623698949	100	-100	0.997443272726	100	1	200	80	0	0	0	0	0	0	0	22	66	100	0	;
	73	164.962384632	28.8623698949	100	-100	0.997443272726	100	1	200	80	0	0	0	0	0	0	0	22	66	100	0	;
	73	547.689053035	74.2811695065	297.5	-297.5	0.997443272726	100	1	595	238	0	0	0	0	0	0	0	65.45	196.35	297.5	0	;
	73	548.440750062	74.2811695065	297.5	-297.5	0.997443272726	100	1	595	238	0	0	0	0	0	0	0	65.45	196.35	297.5	0	;
	79	0	0	424	-424	0.97171666975	100	0	848	440.96	0	0	0	0	0	0	0	141.3333333	424	424	0	;
	75	960.328872281	78.9410010542	511	-511	1.00257094668	100	1	1022	408.8	0	0	0	0	0	0	0	112.42	337.26	511	0	;
	75	960.328872281	78.9410010542	511	-511	1.00257094668	100	1	1022	408.8	0	0	0	0	0	0	0	112.42	337.26	511	0	;
	82	933.585375408	87.4147233529	475	-475	0.992130108404	100	1	950	902.5	0	0	0	0	0	0	0	28.5	85.5	475	0	;
	82	933.585375408	87.4147233529	475	-475	0.992130108404	100	1	950	902.5	0	0	0	0	0	0	0	28.5	85.5	475	0	;
	82	982.944658889	88.2487477357	500	-500	0.992130108404	100	1	1000	950	0	0	0	0	0	0	0	30	90	500	0	;
	82	982.944658889	88.2487477357	500	-500	0.992130108404	100	1	1000	950	0	0	0	0	0	0	0	30	90	500	0	;
	82	982.944658889	88.2487477357	500	-500	0.992130108404	100	1	1000	950	0	0	0	0	0	0	0	30	90	500	0	;
	82	982.944658889	88.2487477357	500	-500	0.992130108404	100	1	1000	950	0	0	0	0	0	0	0	30	90	500	0	;
	82	1378.25971812	92.1664060303	700	-700	0.992130108404	100	1	1400	1330	0	0	0	0	0	0	0	42	126	700	0	;
	87	0	0	180.8	-180.8	0.977808411326	100	0	361.6	188.032	0	0	0	0	0	0	0	60.26666667	180.8	180.8	0	;
	98	0	0	44	-44	1.0051451812	100	0	88	45.76	0	0	0	0	0	0	0	14.66666667	44	44	0	;
	99	0	0	24.15	-24.15	1.00261653761	100	0	48.3	25.116	0	0	0	0	0	0	0	8.05	24.15	24.15	0	;
	100	0	0	225	-225	1.02142691531	100	0	450	234	0	0	0	0	0	0	0	75	225	225	0	;
	100	0	0	225	-225	1.02142691531	100	0	450	234	0	0	0	0	0	0	0	75	225	225	0	;
	100	0	0	225	-225	1.02142691531	100	0	450	234	0	0	0	0	0	0	0	75	225	225	0	;
	100	522.252025585	5.03218462964	275	-275	1.02142691531	100	1	550	220	0	0	0	0	0	0	0	60.5	181.5	275	0	;
	100	472.095388097	4.12808551536	250	-250	1.02142691531	100	1	500	200	0	0	0	0	0	0	0	55	165	250	0	;
	100	472.095388097	4.12808551536	250	-250	1.02142691531	100	1	500	200	0	0	0	0	0	0	0	55	165	250	0	;
	100	472.095388097	4.12808551536	250	-250	1.02142691531	100	1	500	200	0	0	0	0	0	0	0	55	165	250	0	;
	100	472.095388097	4.12808551536	250	-250	1.02142691531	100	1	500	200	0	0	0	0	0	0	0	55	165	250	0	;
	100	472.095388097	4.12808551536	250	-250	1.02142691531	100	1	500	200	0	0	0	0	0	0	0	55	165	250	0	;
	100	991.34078263	8.45511678254	509.515	-509.515	1.02142691531	100	1	1019.03	407.612	0	0	0	0	0	0	0	112.0933	336.2799	509.515	0	;
	100	991.34078263	8.45511678254	509.515	-509.515	1.02142691531	100	1	1019.03	407.612	0	0	0	0	0	0	0	112.0933	336.2799	509.515	0	;
	106	966.986430913	16.9942605844	509	-509	1.00475255192	100	1	1018	407.2	0	0	0	0	0	0	0	111.98	335.94	509	0	;
	108	0	0	359.2	-359.2	1.00311876999	100	0	718.4	373.568	0	0	0	0	0	0	0	119.7333333	359.2	359.2	0	;
	124	934.817856732	36.6270561985	475	-475	1.01088272629	100	1	950	902.5	0	0	0	0	0	0	0	28.5	85.5	475	0	;
	124	934.817856732	36.6270561985	475	-475	1.01088272629	100	1	950	902.5	0	0	0	0	0	0	0	28.5	85.5	475	0	;
	124	984.328832568	37.0977418699	500	-500	1.01088272629	100	1	1000	950	0	0	0	0	0	0	0	30	90	500	0	;
	124	984.328832568	37.0977418699	500	-500	1.01088272629	100	1	1000	950	0	0	0	0	0	0	0	30	90	500	0	;
	124	984.328832568	37.0977418699	500	-500	1.01088272629	100	1	1000	950	0	0	0	0	0	0	0	30	90	500	0	;
	124	984.328832568	37.0977418699	500	-500	1.01088272629	100	1	1000	950	0	0	0	0	0	0	0	30	90	500	0	;
	128	0	0	57.623	-57.623	0.987667745692	100	0	115.246	59.92792	0	0	0	0	0	0	0	19.20766667	57.623	57.623	0	;
	134	0	0	262.75	-262.75	0.997820903218	100	0	525.5	273.26	0	0	0	0	0	0	0	87.58333333	262.75	262.75	0	;
	134	0	0	432.1	-432.1	0.997820903218	100	0	864.2	449.384	0	0	0	0	0	0	0	144.0333333	432.1	432.1	0	;
	134	0	0	247.3	-247.3	0.997820903218	100	0	494.6	257.192	0	0	0	0	0	0	0	82.43333333	247.3	247.3	0	;
	134	0	0	247.3	-247.3	0.997820903218	100	0	494.6	257.192	0	0	0	0	0	0	0	82.43333333	247.3	247.3	0	;
	137	325.885284908	28.0422033774	170	-170	0.994762262028	100	1	340	136	0	0	0	0	0	0	0	37.4	112.2	170	0	;
	137	314.295086145	27.157589888	164.3	-164.3	0.994762262028	100	1	328.6	131.44	0	0	0	0	0	0	0	36.146	108.438	164.3	0	;
	156	0	0	185.35	-185.35	0.979821154528	100	0	370.7	192.764	0	0	0	0	0	0	0	61.78333333	185.35	185.35	0	;
	160	0	0	0	0	0.975269027529	100	0	0	0	0	0	0	0	0	0	0	0	0	0	0	;
	166	686.494854467	90.5233821491	350	-350	0.993549167795	100	1	700	665	0	0	0	0	0	0	0	21	63	350	0	;
	166	686.494854467	90.5233821491	350	-350	0.993549167795	100	1	700	665	0	0	0	0	0	0	0	21	63	350	0	;
	166	686.494854467	90.5233821491	350	-350	0.993549167795	100	1	700	665	0	0	0	0	0	0	0	21	63	350	0	;
	166	982.397103269	99.7191448107	500	-500	0.993549167795	100	1	1000	950	0	0	0	0	0	0	0	30	90	500	0	;
	166	982.397103269	99.7191448107	500	-500	0.993549167795	100	1	1000	950	0	0	0	0	0	0	0	30	90	500	0	;
	167	0	0	150	-150	0.992268166581	100	0	300	156	0	0	0	0	0	0	0	50	150	150	0	;
	167	0	0	225	-225	0.992268166581	100	0	450	234	0	0	0	0	0	0	0	75	225	225	0	;
	167	0	0	225	-225	0.992268166581	100	0	450	234	0	0	0	0	0	0	0	75	225	225	0	;
	167	0	0	435.95	-435.95	0.992268166581	100	0	871.9	453.388	0	0	0	0	0	0	0	145.3166667	435.95	435.95	0	;
	167	0	0	221.4	-221.4	0.992268166581	100	0	442.8	230.256	0	0	0	0	0	0	0	73.8	221.4	221.4	0	;
	172	0	0	22.918	-22.918	0.989289124622	100	0	45.836	23.83472	0	0	0	0	0	0	0	7.639333333	22.918	22.918	0	;
	175	637.033165446	78.0593779932	325	-325	1.00138234897	100	1	650	617.5	0	0	0	0	0	0	0	19.5	58.5	325	0	;
	175	932.586819595	86.6546497545	475	-475	1.00138234897	100	1	950	902.5	0	0	0	0	0	0	0	28.5	85.5	475	0	;
	175	932.586819595	86.6546497545	475	-475	1.00138234897	100	1	950	902.5	0	0	0	0	0	0	0	28.5	85.5	475	0	;
	175	981.918676436	87.4950443603	500	-500	1.00138234897	100	1	1000	950	0	0	0	0	0	0	0	30	90	500	0	;
	175	981.918676436	87.4950443603	500	-500	1.00138234897	100	1	1000	950	0	0	0	0	0	0	0	30	90	500	0	;
	175	1377.19303468	91.5474182338	700	-700	1.00138234897	100	1	1400	1330	0	0	0	0	0	0	0	42	126	700	0	;
	175	1377.19303468	91.5474182338	700	-700	1.00138234897	100	1	1400	1330	0	0	0	0	0	0	0	42	126	700	0	;
	180	0	0	13.15	-13.15	0.992439549994	100	0	26.3	13.676	0	0	0	0	0	0	0	4.383333333	13.15	13.15	0	;
	186	0	0	225	-225	0.993745511273	100	0	450	234	0	0	0	0	0	0	0	75	225	225	0	;
	186	0	0	225	-225	0.993745511273	100	0	450	234	0	0	0	0	0	0	0	75	225	225	0	;
	186	0	0	225	-225	0.993745511273	100	0	450	234	0	0	0	0	0	0	0	75	225	225	0	;
	186	0	0	225	-225	0.993745511273	100	0	450	234	0	0	0	0	0	0	0	75	225	225	0	;
	190	491.50468128	19.0380296096	280	-280	1	100	1	560	224	0	0	0	0	0	0	0	61.6	184.8	280	0	;
	190	491.50468128	19.0380296096	280	-280	1	100	1	560	224	0	0	0	0	0	0	0	61.6	184.8	280	0	;
	190	436.313968743	20.0144507365	250	-250	1	100	1	500	200	0	0	0	0	0	0	0	55	165	250	0	;
	190	436.313968743	20.0144507365	250	-250	1	100	1	500	200	0	0	0	0	0	0	0	55	165	250	0	;
	190	935.471578119	13.6276405007	520	-520	1	100	1	1040	416	0	0	0	0	0	0	0	114.4	343.2	520	0	;
	190	935.471578119	13.6276405007	520	-520	1	100	1	1040	416	0	0	0	0	0	0	0	114.4	343.2	520	0	;
	193	390.237471821	26.9438509763	250	-250	1.00651224611	100	1	500	200	0	0	0	0	0	0	0	55	165	250	0	;
	193	390.237471821	26.9438509763	250	-250	1.00651224611	100	1	500	200	0	0	0	0	0	0	0	55	165	250	0	;
	193	390.237471821	26.9438509763	250	-250	1.00651224611	100	1	500	200	0	0	0	0	0	0	0	55	165	250	0	;
	193	390.237471821	26.9438509763	250	-250	1.00651224611	100	1	500	200	0	0	0	0	0	0	0	55	165	250	0	;
	193	358.283360293	26.9438509763	250	-250	1.00651224611	100	1	500	200	0	0	0	0	0	0	0	55	165	250	0	;
	193	390.237471821	26.9438509763	250	-250	1.00651224611	100	1	500	200	0	0	0	0	0	0	0	55	165	250	0	;
	193	390.237471821	26.9438509763	250	-250	1.00651224611	100	1	500	200	0	0	0	0	0	0	0	55	165	250	0	;
	193	322.147279809	26.9438509763	250	-250	1.00651224611	100	1	500	200	0	0	0	0	0	0	0	55	165	250	0	;
	71	985.438383603	86.9904063545	520	-520	0.996385121506	100	1	1040	416	0	0	0	0	0	0	0	114.4	343.2	520	0	;
	60	0	0	247.5	-247.5	1.01952981327	100	0	495	257.4	0	0	0	0	0	0	0	82.5	247.5	247.5	0	;
	42	996.16352022	50.5998461389	512.7	-512.7	0.991579132954	100	1	1025.4	533.208	0	0	0	0	0	0	0	170.9	512.7	512.7	0	;
	11	0	0	0	0	0.998366784062	100	0	0	0	0	0	0	0	0	0	0	0	0	0	0	;
	172	0	0	59.486	-59.486	0.989289124622	100	0	118.972	61.86544	0	0	0	0	0	0	0	19.8286666667	59.486	59.486	0	;
	82	1378.25971812	92.1664060303	700	-700	0.992130108404	100	1	1400	1330	0	0	0	0	0	0	0	42	126	700	0	;
	75	988.200045012	79.2530657426	525	-525	1.00257094668	100	1	1050	420	0	0	0	0	0	0	0	115.5	346.5	525	0	;
	64	0	0	298.5855	-298.5855	1.01188063549	100	0	597.171	310.52892	0	0	0	0	0	0	0	99.5285	298.5855	298.5855	0	;
	160	0	0	135	-135	0.975269027529	100	0	270	140.4	0	0	0	0	0	0	0	45	135	135	0	;
	192	780.411862861	30.486785142	506	-506	1.00000924136	100	1	1012	526.24	0	0	0	0	0	0	0	168.666666667	506	506	0	;
	167	0	0	552.3	-552.3	0.992268166581	100	0	1104.6	574.392	0	0	0	0	0	0	0	184.1	552.3	552.3	0	;
	75	0	0	525	-525	1.00257094668	100	0	1050	546	0	0	0	0	0	0	0	175	525	525	0	;
	62	0	0	135	-135	1.01937228923	100	0	270	140.4	0	0	0	0	0	0	0	45	135	135	0	;
	52	0	0	280.5	-280.5	0.999240673902	100	0	561	291.72	0	0	0	0	0	0	0	93.5	280.5	280.5	0	;
	11	0	0	247.73	-247.73	0.998366784062	100	0	495.46	257.6392	0	0	0	0	0	0	0	82.5766666667	247.73	247.73	0	;
	24	0	0	142.5	-142.5	1.00080255883	100	0	285	148.2	0	0	0	0	0	0	0	47.5	142.5	142.5	0	;
	26	0	0	249	-249	1.00148161996	100	0	498	258.96	0	0	0	0	0	0	0	83	249	249	0	;
...
];

% branch data
%	fbus	tbus	r	x	b	rateA	rateB	rateC	ratio	angle	status	angmin	angmax	Pf	Qf	Pt	Qt
mpc.branch = [
	1	2	0.001953667	0.017794207	0.057753945	904	904	904	0	0	1	-30	30	103.056586423	-55.5565199555	-102.788009809	52.3284441795	;
	1	3	0.002346024	0.021367842	0.069352749	904	904	904	0	0	1	-30	30	74.4432447385	-48.5169316503	-74.2608604779	43.3608588797	;
	1	66	0.002789894	0.025410654	0.082474341	904	904	904	0	0	1	-30	30	-239.893932054	97.8340340026	241.837703695	-88.0309236449	;
	2	3	0.000230027	0.002463512	0.207508013	2172	2172	2172	0	0	1	-30	30	-99.6539974105	-20.5710988556	99.6773163223	0.265642660963	;
	2	4	0.001097043	0.009991982	0.032430577	904	904	904	0	0	1	-30	30	57.6023076074	-20.5946804002	-57.5615475671	17.7508514352	;
	2	6	0.004587512	0.041783555	0.135615211	904	904	904	0	0	1	-30	30	69.4283600281	-18.7038031357	-69.1983530693	7.34088366246	;
	3	4	0.000157872	0.001690763	0.142417379	2172	2172	2172	0	0	1	-30	30	488.422681729	-97.7493698542	-488.029567771	87.8337273773	;
	3	7	0.001539844	0.014025061	0.04552058	904	904	904	0	0	1	-30	30	50.8551366602	-30.4044592996	-50.8026421864	26.3566631784	;
	3	28	0.000668777	0.007162388	0.603306441	2172	2172	2172	0	0	1	-30	30	-910.560016538	49.9407392303	916.198010411	-49.5048892722	;
	4	7	0.001330617	0.012119404	0.039335464	904	904	904	0	0	1	-30	30	-9.12759476245	-20.7304819411	9.13343826277	16.8696043508	;
	4	8	0.000413018	0.004423289	0.372585094	2172	2172	2172	0	0	1	-30	30	474.499771622	-92.8759934179	-473.539960641	66.1122626468	;
	5	16	0.00309813	0.028218105	0.091586372	904	904	904	0	0	1	-30	30	163.691413762	-95.5332530253	-162.56027537	96.8284637787	;
	5	20	0.003233724	0.029453105	0.095594761	904	904	904	0	0	1	-30	30	161.424144725	-84.5489753036	-160.332615661	85.1112319478	;
	5	66	0.002753227	0.025076687	0.081390398	904	904	904	0	0	1	-30	30	-194.110052951	63.4159248352	195.31894754	-60.1472083442	;
	5	70	0.001710666	0.015580931	0.050570403	904	904	904	0	0	1	-30	30	-207.458361688	107.607834663	208.439665351	-103.466474345	;
	6	8	0.001796592	0.016363559	0.053110546	904	904	904	0	0	1	-30	30	-14.5304659605	-4.54888969039	14.5343454238	-0.701333702169	;
	6	11	0.001545809	0.014079394	0.045696926	904	904	904	0	0	1	-30	30	6.65568455998	-10.4993117114	-6.65394424339	5.96521248143	;
	7	9	0.000740338	0.006743076	0.021885732	904	904	904	0	0	1	-30	30	189.016803754	-66.6876555269	-188.719689355	67.2039769506	;
	7	14	0.000255269	0.002733843	0.230278712	2172	2172	2172	0	0	1	-30	30	493.577827972	-164.459346722	-492.894470068	148.73894877	;
	7	28	0.000583767	0.00625196	0.526618746	2172	2172	2172	0	0	1	-30	30	-1160.9756413	135.915567797	1169.01802452	-102.27811755	;
	8	10	0.000160584	0.000184873	0.901984702	1416	1416	1416	0	0	1	-30	30	-624.209822732	-14.1068896559	624.839703358	-75.070764363	;
	8	11	0.000158062	0.001692798	0.142588761	2172	2172	2172	0	0	1	-30	30	197.151842077	-53.5344271758	-197.086721931	40.0263562339	;
	8	14	0.000269282	0.002883925	0.242920462	2172	2172	2172	0	0	1	-30	30	-301.040710995	-116.480120892	301.315250794	95.1370717328	;
	9	12	0.000119405	0.000137466	0.167672111	708	708	708	0	0	1	-30	30	175.962474511	-74.9434715067	-175.920373729	58.1648577987	;
	9	13	0.000176983	0.000203752	0.248523638	708	708	708	0	0	1	-30	30	-9.73346877922	-57.0149543513	9.7371344008	32.0724378789	;
	9	15	0.000297907	0.000342968	0.41832935	708	708	708	0	0	1	-30	30	-280.406432179	41.71401605	280.651480182	-83.4451572362	;
	10	14	0.00105221	0.00958364	0.031105236	904	904	904	0	0	1	-30	30	-77.5074126549	-23.166558139	77.5756982792	20.6761648021	;
	10	24	0.000243464	0.000280289	1.367512381	1416	1416	1416	0	0	1	-30	30	-929.031469482	38.588962731	931.165553969	-172.833716989	;
	11	21	0.00015784	0.00169041	0.142387631	2172	2172	2172	0	0	1	-30	30	-285.188275995	-83.9564529288	285.32642628	71.2186131414	;
	11	25	0.00110679	0.010080759	0.032718716	904	904	904	0	0	1	-30	30	-57.9611234474	-16.7241523139	58.0009574141	13.8186334786	;
	12	14	0.000665432	0.00606083	0.019671394	904	904	904	0	0	1	-30	30	5.41456093075	-2.00072901295	-5.41435969885	0.0285814896216	;
	12	18	0.000258897	0.000298056	0.363549377	708	708	708	0	0	1	-30	30	-129.579376702	-86.1726872139	129.634604593	49.7362646683	;
	13	16	0.000661549	0.006025463	0.019556605	904	904	904	0	0	1	-30	30	-31.029471241	-11.550235455	31.0365520849	9.64977991917	;
	13	17	0.000189196	0.000217813	0.265674267	708	708	708	0	0	1	-30	30	-238.807049651	-37.6713940173	238.915642261	11.1118126393	;
	13	22	0.000821755	0.00748463	0.024292563	904	904	904	0	0	1	-30	30	-26.0208629711	-8.55092391779	26.0268452975	6.1648107482	;
	14	18	9.94e-05	0.000114489	0.558582953	1416	1416	1416	0	0	1	-30	30	-493.198671127	-47.3590996866	493.439982738	-8.44556518905	;
	14	19	2.7e-05	6.2e-05	1.344867636	1906	1906	1906	0	0	1	-30	30	68.6136560304	-191.805824221	-68.6082304844	56.8525242881	;
	14	23	0.000322118	0.000370841	0.45232683	708	708	708	0	0	1	-30	30	197.138138525	-60.1022778744	-197.008897839	14.8823571156	;
	15	16	0.000110729	0.000127478	0.155489196	708	708	708	0	0	1	-30	30	-393.105178671	74.2430170362	393.282869314	-89.6691947005	;
	16	17	1.61e-05	3.7e-05	7.216516162	5718	5718	5718	0	0	1	-30	30	3349.70739483	-901.714198482	-3347.86444499	180.506063559	;
	16	20	0.000640865	0.005837068	0.018945138	904	904	904	0	0	1	-30	30	25.5836630472	35.778126032	-25.5708936727	-37.5625658576	;
	16	22	3.29e-05	7.57e-05	1.640782241	1906	1906	1906	0	0	1	-30	30	-59.1815016815	48.1421017483	59.1882313342	-213.109569505	;
	16	28	0.000193401	0.002071259	0.697869898	4344	4344	4344	0	0	1	-30	30	-4045.03661757	746.542972147	4077.68049908	-466.78643352	;
	17	18	8.5e-06	1.95e-05	1.693948976	3812	3812	3812	0	0	1	-30	30	2632.28811212	-239.283994483	-2631.70002256	70.4383746845	;
	18	19	3.3e-05	3.8e-05	0.742	2832	2832	2832	0	0	1	-30	30	1524.52937133	-165.45090456	-1523.76044849	91.8340175518	;
	18	30	0.000754369	0.006870878	0.022300533	904	904	904	0	0	1	-30	30	-13.5570677852	3.95644718256	13.5586415533	-6.18171631713	;
	19	23	4.24e-05	4.88e-05	0.952412124	2832	2832	2832	0	0	1	-30	30	1468.4904038	-186.750733154	-1467.57120361	92.2754740475	;
	20	22	0.000644357	0.005868869	0.019048354	904	904	904	0	0	1	-30	30	-26.7584848088	-35.8716577771	26.7709428144	34.0741776115	;
	21	25	0.000588113	0.0053566	0.017385701	904	904	904	0	0	1	-30	30	-18.8538090242	-6.62138857738	18.8560935439	4.90244425273	;
	21	34	9.49e-05	0.001016882	0.085654572	2172	2172	2172	0	0	1	-30	30	-569.310297228	-125.519598684	569.631746464	120.380998654	;
	22	29	0.000157753	0.000181614	0.886083495	1416	1416	1416	0	0	1	-30	30	464.602862472	-92.9540127124	-464.260507158	4.31534922286	;
	22	36	0.000114952	0.001231098	0.103698609	2172	2172	2172	0	0	1	-30	30	28.1193920177	19.7257056503	-28.1177769317	-30.1311075786	;
	22	38	0.000222736	0.002385427	0.200930653	2172	2172	2172	0	0	1	-30	30	-788.667702238	213.388669906	790.15627462	-217.580857915	;
	22	46	0.000425686	0.004558955	0.384012537	2172	2172	2172	0	0	1	-30	30	-432.547041972	-60.337415799	433.34631088	30.1372689403	;
	23	24	5.52e-05	0.000503	0.0147	2712	2712	2712	0	0	1	-30	30	695.391786191	14.2079405518	-695.125401424	-13.2535837842	;
	23	32	2.02e-05	4.64e-05	1.00675716	1906	1906	1906	0	0	1	-30	30	399.245673183	-111.803489829	-399.212797508	10.9556987773	;
	23	33	0.000169968	0.000195677	0.238673524	708	708	708	0	0	1	-30	30	224.833850304	-44.0733349354	-224.746398246	20.2543375197	;
	24	26	0.000118	0.000136	0.664	1416	1416	1416	0	0	1	-30	30	-775.647865717	140.607274194	776.39226179	-206.301089915	;
	25	26	0.00041452	0.003775492	0.012253963	904	904	904	0	0	1	-30	30	-83.2055913775	-16.0544187576	83.2352450269	15.0966205418	;
	25	34	0.000619848	0.00564564	0.018323828	904	904	904	0	0	1	-30	30	-84.8478853511	-15.6779191377	84.8938092541	14.2592889866	;
	26	32	0.000607908	0.005536893	0.01797087	904	904	904	0	0	1	-30	30	-35.7385294708	8.10222148566	35.746762297	-9.8291504829	;
	26	34	4.5e-05	0.000103577	2.245327702	1906	1906	1906	0	0	1	-30	30	-1471.02036898	104.81349661	1472.01245319	-327.826997659	;
	27	34	9.33e-05	0.000999417	0.336734	4344	4344	4344	0	0	1	-30	30	151.069536024	-8.76254331207	-151.048272277	-24.8198973488	;
	28	38	0.001685665	0.015353221	0.049831335	904	904	904	0	0	1	-30	30	423.7728744	-43.0305139884	-420.706222532	65.9916523626	;
	28	41	0.002015591	0.018358223	0.059584548	904	904	904	0	0	1	-30	30	86.8734567963	53.3432382248	-86.6565954492	-57.2327077217	;
	28	50	9.99e-05	0.00321	1.63	7290	7290	7290	0	0	1	-30	30	668.880519944	-736.414114177	-668.001301561	598.897003529	;
	28	80	0.000122152	0.003924627	7.991861101	14580	14580	14580	0	0	1	-30	30	-7464.59571325	1332.45337477	7536.59322113	195.315074281	;
	29	30	8.04e-06	9.26e-06	0.04515506	1416	1416	1416	0	0	1	-30	30	595.851301102	71.6727730105	-595.822436098	-76.1735072803	;
	29	36	3.7e-05	8.52e-05	1.846241882	1906	1906	1906	0	0	1	-30	30	-725.747086194	-135.404005456	725.941835971	-49.5934886618	;
	30	31	0.00033011	0.003006676	0.009758648	904	904	904	0	0	1	-30	30	120.615167911	36.1903417855	-120.562912932	-36.6927440177	;
	31	33	0.000235829	0.000271499	0.331156608	708	708	708	0	0	1	-30	30	-210.754037051	14.7726176892	210.860991128	-47.8135283909	;
	31	36	0.00107165	0.0097607	0.031679912	904	904	904	0	0	1	-30	30	-44.1352169447	-15.6252694049	44.1581800552	12.6572337001	;
	32	33	6.05e-05	6.97e-05	0.1912274	1062	1062	1062	0	0	1	-30	30	432.622583854	-1.95311642292	-432.509587426	-17.0803698527	;
	32	37	0.000239942	0.002569698	0.216452349	2172	2172	2172	0	0	1	-30	30	-162.337052408	0.296084016742	162.400430549	-21.3170859424	;
	32	44	0.000338016	0.003620039	0.304925228	2172	2172	2172	0	0	1	-30	30	-343.932823872	-17.6671064293	344.331721295	-8.66721621207	;
	34	37	6.47e-05	0.000692975	0.058371101	2172	2172	2172	0	0	1	-30	30	-651.949414287	146.860564917	652.237822726	-149.627542367	;
	35	37	0.000950447	0.008656772	0.028096937	904	904	904	0	0	1	-30	30	-63.2689444914	-32.4778229576	63.3163598623	30.1019031623	;
	35	40	0.001104834	0.01006295	0.032660912	904	904	904	0	0	1	-30	30	-272.456732567	-14.1702287461	273.281911491	18.4177868106	;
	36	38	0.000952048	0.00867136	0.028144286	904	904	904	0	0	1	-30	30	-219.52181929	60.0557333421	220.014240875	-58.3899509208	;
	36	43	0.001604892	0.014617531	0.047443535	904	904	904	0	0	1	-30	30	79.5950054889	16.0424285942	-79.4883879869	-19.8197647529	;
	36	44	0.000327256	0.003504805	0.295218756	2172	2172	2172	0	0	1	-30	30	-261.579040184	6.45788754713	261.803376731	-33.722099329	;
	36	46	0.000315296	0.00337672	0.284429868	2172	2172	2172	0	0	1	-30	30	-594.059250013	-78.5705340647	595.17964935	61.8705643287	;
	37	40	0.000119	0.00127	0.429	4344	4344	4344	0	0	1	-30	30	-1738.11219197	54.8269231932	1741.70470446	-59.557212851	;
	38	42	0.001675214	0.015258027	0.049522368	904	904	904	0	0	1	-30	30	-132.52733268	64.377148443	132.896914612	-65.9183717768	;
	38	45	0.001624604	0.014797065	0.048026242	904	904	904	0	0	1	-30	30	-52.6409863037	-58.953260311	52.7380972217	54.9969082964	;
	38	46	0.001525585	0.013895192	0.045099066	904	904	904	0	0	1	-30	30	-6.3354882533	-53.8411588191	6.3767581491	49.6802610472	;
	38	84	0.000977268	0.010466224	0.881597169	2172	2172	2172	0	0	1	-30	30	-746.334044722	223.559052612	752.485472062	-244.20227685	;
	39	44	0.000549539	0.00500526	0.064981493	1808	1808	1808	0	0	1	-30	30	-672.110830912	-67.2111140104	674.640830847	83.7721963445	;
	40	44	0.000186834	0.002000932	0.16854368	2172	2172	2172	0	0	1	-30	30	691.787050035	-61.7575342721	-690.892374652	54.3973702425	;
	40	47	0.000177428	0.001900194	0.160058219	2172	2172	2172	0	0	1	-30	30	944.150654429	118.239497998	-942.549248412	-117.117362727	;
	41	42	0.001299581	0.011836722	0.038417974	904	904	904	0	0	1	-30	30	235.139708358	-69.9297919867	-234.338817778	73.4679106963	;
	41	52	0.003101751	0.028251087	0.091693421	904	904	904	0	0	1	-30	30	37.9670140975	-54.2910485873	-37.8418142804	46.3957460951	;
	41	77	0.002217352	0.020195883	0.065548969	904	904	904	0	0	1	-30	30	-370.535891555	163.044954928	374.296943692	-135.01930844	;
	42	46	0.00172419	0.015704108	0.050970195	904	904	904	0	0	1	-30	30	124.536446058	-109.5880947	-124.063395971	108.80863373	;
	42	84	0.004178797	0.038060939	0.123532864	904	904	904	0	0	1	-30	30	-150.40912999	40.2907166056	151.461979877	-42.7298240132	;
	43	44	0.000449352	0.004092749	0.013283673	904	904	904	0	0	1	-30	30	-506.076419001	-38.7370658224	507.237314974	47.9809298018	;
	44	48	0.001280818	0.011665829	0.037863315	904	904	904	0	0	1	-30	30	-179.414062538	-52.5872389323	179.857011708	52.784184091	;
	44	57	0.000681396	0.007297531	0.614689901	2172	2172	2172	0	0	1	-30	30	-1098.36993103	-109.24045418	1106.59063066	134.490723806	;
	45	46	0.000111099	0.001189836	0.100222927	2172	2172	2172	0	0	1	-30	30	584.504502455	110.378241339	-584.116810322	-116.401316449	;
	45	50	0.00040114	0.004296079	0.361869864	2172	2172	2172	0	0	1	-30	30	-906.679796864	-155.040912783	909.995144743	153.364165239	;
	46	48	0.001260894	0.011484355	0.037274311	904	904	904	0	0	1	-30	30	-87.4418461226	-29.7110139555	87.5466270168	26.872315429	;
	46	50	0.000334595	0.003583402	0.301839233	2172	2172	2172	0	0	1	-30	30	-1279.89064782	-208.44539211	1285.42322879	236.743082451	;
	47	49	0.001906713	0.017366547	0.056365905	904	904	904	0	0	1	-30	30	-248.001961905	-72.5296272164	249.270536548	78.3608247565	;
	47	60	0.000752607	0.008060181	0.67892992	2172	2172	2172	0	0	1	-30	30	-1445.15288631	-73.9236238633	1460.92235174	173.662591542	;
	48	49	0.001480551	0.013485018	0.043767781	904	904	904	0	0	1	-30	30	-134.574805643	-27.8983621858	134.846718137	25.8774782463	;
	48	51	0.001270961	0.011576049	0.037571917	904	904	904	0	0	1	-30	30	-378.060340902	-107.185008323	379.975694176	120.722880496	;
	49	51	0.000899122	0.008189302	0.0598043	1356	1356	1356	0	0	1	-30	30	-312.62749157	-115.63826854	313.588251128	118.135876185	;
	49	53	0.002230934	0.020319589	0.065950477	904	904	904	0	0	1	-30	30	-447.638400393	-26.214894976	451.976324174	58.7879366419	;
	50	51	0.000183433	0.001964511	0.165475847	2172	2172	2172	0	0	1	-30	30	-376.541189071	-483.580523854	377.190578542	473.195193471	;
	50	54	0.000298513	0.003196975	0.269289514	2172	2172	2172	0	0	1	-30	30	-62.5500287807	78.3679369218	62.5858095491	-105.857345049	;
	50	62	4.12e-05	0.001322961	2.693994224	14580	14580	14580	0	0	1	-30	30	-1159.09089008	-144.941934149	1159.6242574	-117.692000581	;
	51	55	0.001436718	0.01308578	0.042471992	904	904	904	0	0	1	-30	30	-150.666009272	64.8346307904	151.03538131	-65.936675332	;
	51	57	0.00189377	0.017248658	0.055983277	904	904	904	0	0	1	-30	30	-96.8605297934	66.9360193604	97.1159174435	-70.4767702546	;
	52	54	0.001933006	0.017606027	0.057143176	904	904	904	0	0	1	-30	30	-55.5625875439	-91.7652166314	55.7753985176	87.9013033764	;
	52	56	0.001462649	0.013321963	0.04323856	904	904	904	0	0	1	-30	30	17.4910945176	-58.8717596335	-17.4394970743	54.9927237609	;
	52	84	0.001585688	0.014442614	0.046875812	904	904	904	0	0	1	-30	30	-280.921096325	154.766728584	282.56635498	-144.381655675	;
	53	55	0.000288514	0.003089893	1.041078801	4344	4344	4344	0	0	1	-30	30	1497.32632223	248.94106033	-1491.03411053	-291.687734685	;
	53	58	0.000270064	0.002892303	0.243626177	2172	2172	2172	0	0	1	-30	30	-1439.19152045	270.175912876	1444.61889635	-238.048034637	;
	53	63	2.79e-05	0.000896312	1.825192122	14580	14580	14580	0	0	1	-30	30	408.91634443	577.774336873	-408.753860542	-766.832338823	;
	54	55	0.002132132	0.019419691	0.063029714	904	904	904	0	0	1	-30	30	-128.659900219	-20.7846760514	129.008150418	17.4094114488	;
	54	61	0.001817125	0.016550571	0.053717525	904	904	904	0	0	1	-30	30	-28.1222468483	-6.58544233664	28.136424256	1.16320866862	;
	54	62	0.000345552	0.003700749	0.311723639	2172	2172	2172	0	0	1	-30	30	-356.971686227	-72.7636876446	357.409000097	45.1619107149	;
	55	57	0.000154208	0.001651521	0.139111914	2172	2172	2172	0	0	1	-30	30	174.158164482	196.738241997	-174.05200959	-210.090887751	;
	55	64	0.003142511	0.028622331	0.092898352	904	904	904	0	0	1	-30	30	-33.592921639	36.4341944085	33.6781069606	-45.2691374352	;
	56	61	0.001408725	0.01283082	0.041644479	904	904	904	0	0	1	-30	30	-131.280682612	-69.8647444642	131.584153286	68.3649491084	;
	57	60	0.001430752	0.01303144	0.042295623	904	904	904	0	0	1	-30	30	-256.010608326	24.3834932454	256.923799298	-20.4592714606	;
	57	97	0.000552148	0.005913329	0.498094995	2172	2172	2172	0	0	1	-30	30	-1447.30757887	192.825100652	1458.70496946	-122.397511668	;
	58	59	6.17e-05	0.00066	0.501	6516	6516	6516	0	0	1	-30	30	-5209.30208703	176.499401372	5225.06741516	-61.2700832261	;
	58	63	0.00017	0.00182	0.613	4344	4344	4344	0	0	1	-30	30	2503.00531227	-64.6192672331	-2492.99051067	106.799231082	;
	60	63	0.000254942	0.002730347	0.229984176	2172	2172	2172	0	0	1	-30	30	-398.028288607	-316.444515831	398.644259871	298.919243036	;
	60	100	0.000568608	0.006089613	0.512943851	2172	2172	2172	0	0	1	-30	30	-1486.65875215	146.557082962	1498.91314363	-68.733193556	;
	61	62	0.000190755	0.001737417	0.022556263	1808	1808	1808	0	0	1	-30	30	-493.299110645	-75.2827501179	493.757910585	77.1227930616	;
	62	63	6.31e-05	0.00202596	4.125535352	14580	14580	14580	0	0	1	-30	30	-2637.46560426	-536.166832991	2641.75262611	241.166030929	;
	62	64	0.00024797	0.002655684	0.223695124	2172	2172	2172	0	0	1	-30	30	-807.203311832	360.439125867	809.088541977	-363.323280214	;
	63	97	0.001705746	0.015536123	0.050424972	904	904	904	0	0	1	-30	30	-268.901001085	106.922944705	270.260046784	-99.823159362	;
	64	96	0.001229987	0.011202852	0.036360649	904	904	904	0	0	1	-30	30	-262.936987066	30.3888009473	263.779992146	-26.4338020601	;
	64	98	0.00145865	0.013285543	0.043120356	904	904	904	0	0	1	-30	30	38.073016473	44.9829258401	-38.0206411641	-48.8916987496	;
	64	99	0.00122871	0.011191219	0.036322892	904	904	904	0	0	1	-30	30	114.30418176	69.9788879738	-114.085462443	-71.6719854978	;
	64	102	0.00020466	0.002191839	0.73849704	4344	4344	4344	0	0	1	-30	30	-1206.79180328	215.783286017	1209.83132333	-258.644442513	;
	65	68	0.001222283	0.011132689	0.036132921	904	904	904	0	0	1	-30	30	-472.1910714	-27.2282432646	475.080901636	50.0951900127	;
	65	69	0.003164497	0.028822584	0.093548306	904	904	904	0	0	1	-30	30	392.695965217	15.9418269831	-387.522489252	22.4377822496	;
	66	67	0.001903714	0.01733923	0.056277244	904	904	904	0	0	1	-30	30	-553.757915223	141.504275374	560.381470787	-86.4208091285	;
	66	70	0.001986687	0.018094956	0.058730073	904	904	904	0	0	1	-30	30	89.2094359248	3.41350765366	-89.0406243349	-7.38676985486	;
	67	69	0.001285688	0.011710181	0.038007266	904	904	904	0	0	1	-30	30	-583.688731112	83.8376384394	588.537699016	-43.1802616808	;
	68	69	0.00309092	0.02815243	0.091373212	904	904	904	0	0	1	-30	30	592.420463072	59.3399120169	-581.060593819	35.4970105966	;
	68	71	0.000542799	0.0058132	0.489660838	2172	2172	2172	0	0	1	-30	30	-1105.36044105	-113.513530436	1112.27130955	139.569807104	;
	69	72	0.003845431	0.035024597	0.113677932	904	904	904	0	0	1	-30	30	339.822431358	-18.998333125	-335.00319173	52.4058624493	;
	70	72	0.001924592	0.017529395	0.056894456	904	904	904	0	0	1	-30	30	-353.402560535	87.4468691179	356.13878252	-67.8093993555	;
	71	73	0.000429713	0.004602092	0.387646086	2172	2172	2172	0	0	1	-30	30	114.33083517	-52.508284379	-114.26946691	14.6397705783	;
	71	78	0.005029715	0.045811184	0.148687523	904	904	904	0	0	1	-30	30	480.302671762	60.5226518332	-468.381645314	33.7413618965	;
	72	74	0.001850173	0.016851572	0.054694473	904	904	904	0	0	1	-30	30	-113.295775809	6.18750490742	113.554871982	-8.87507388284	;
	73	75	0.000154736	0.001657168	0.139587554	2172	2172	2172	0	0	1	-30	30	-1721.41048611	-130.612542432	1726.04303022	166.266410773	;
	73	76	0.003400257	0.030969904	0.100517777	904	904	904	0	0	1	-30	30	381.456323255	42.3273123191	-376.406695557	-6.12995047269	;
	73	79	0.005323371	0.048485836	0.157368535	904	904	904	0	0	1	-30	30	367.779205118	37.9071020564	-360.429848654	13.7737538046	;
	73	80	0.003287737	0.029945065	0.097191498	904	904	904	0	0	1	-30	30	425.791377217	18.6105675751	-419.782004518	26.5776191167	;
	73	81	0.001180594	0.012643784	1.065018618	2172	2172	2172	0	0	1	-30	30	1803.87778909	193.48683629	-1764.54352114	124.538585694	;
	74	77	0.001050785	0.009570661	0.03106311	904	904	904	0	0	1	-30	30	211.956774594	-48.2050205561	-211.420808236	50.2097214474	;
	74	78	0.003080612	0.028058549	0.091068507	904	904	904	0	0	1	-30	30	-398.840278877	48.568787076	404.238550116	-7.85311795893	;
	75	82	0.000690812	0.007398375	0.623184303	2172	2172	2172	0	0	1	-30	30	1012.82302835	53.2057113495	-1005.7238015	-39.1656124281	;
	76	79	0.00216439	0.019713499	0.063983315	904	904	904	0	0	1	-30	30	301.282941086	-1.73327887698	-299.223637392	14.416707748	;
	77	81	0.002745828	0.0250093	0.081171682	904	904	904	0	0	1	-30	30	-487.149697174	52.382203661	494.25988108	4.77904886809	;
	78	81	0.002422622	0.022065501	0.071617111	904	904	904	0	0	1	-30	30	51.4855681814	-33.7365492895	-51.3927060923	27.8636038049	;
	79	80	0.003522928	0.032087205	0.104144155	904	904	904	0	0	1	-30	30	-160.075548365	-22.1651470992	161.042684715	21.0090259503	;
	79	81	0.001905365	0.017354266	0.056326045	904	904	904	0	0	1	-30	30	280.561755564	-24.5671616946	-278.963685385	33.8055570536	;
	79	83	0.001772751	0.016146406	0.052405742	904	904	904	0	0	1	-30	30	396.106172145	4.23570094731	-393.159605594	17.6846036602	;
	80	82	3.61e-05	0.00115912	2.360357594	14580	14580	14580	0	0	1	-30	30	-6984.93799236	-246.69787985	7003.11265778	599.681660155	;
	81	84	0.00122041	0.011115623	0.144310127	1808	1808	1808	0	0	1	-30	30	1552.50821479	-124.974539551	-1521.15751291	396.753554095	;
	81	86	0.000662535	0.007095536	0.59767536	2172	2172	2172	0	0	1	-30	30	-159.06955274	-86.7325750698	159.271247555	32.1740779344	;
	82	85	0.004627741	0.042149964	0.136804449	904	904	904	0	0	1	-30	30	374.325843427	24.5360712122	-367.692211292	22.6587920187	;
	82	86	0.000927929	0.009937818	0.837088105	2172	2172	2172	0	0	1	-30	30	1726.32589261	101.597764852	-1698.03905457	120.206423041	;
	82	94	0.005001876	0.045557628	0.147864567	904	904	904	0	0	1	-30	30	396.906281504	16.4996455479	-388.872363996	42.3237965488	;
	83	89	0.003668123	0.033409661	0.108436396	904	904	904	0	0	1	-30	30	156.236868709	-41.3769673608	-155.224673057	40.3991142577	;
	85	86	0.000987046	0.00899012	0.029178874	904	904	904	0	0	1	-30	30	144.55141474	-44.9728976441	-144.314348253	44.3552273059	;
	86	87	0.000301405	0.003227955	0.271898989	2172	2172	2172	0	0	1	-30	30	704.417025701	-98.6343037428	-702.826598463	89.6957707008	;
	86	89	0.003643968	0.033189659	0.107722346	904	904	904	0	0	1	-30	30	241.070079341	-12.4252362579	-238.848887747	22.4084437378	;
	86	90	0.002477336	0.022563841	0.073234554	904	904	904	0	0	1	-30	30	129.792173222	-16.9485677538	-129.350142869	13.9840166187	;
	86	92	0.000752885	0.008063158	0.67918067	2172	2172	2172	0	0	1	-30	30	389.288201278	-90.5792091951	-388.065864453	38.702147312	;
	87	90	0.002118269	0.019293421	0.062619884	904	904	904	0	0	1	-30	30	34.4153865739	-3.33837945554	-34.3891430307	-2.40573447606	;
	87	95	0.000515412	0.005519901	0.464955523	2172	2172	2172	0	0	1	-30	30	641.857427808	-91.3563868561	-639.610791464	70.9075802736	;
	88	92	0.001978682	0.018022046	0.058493431	904	904	904	0	0	1	-30	30	135.414745255	-6.98074520573	-135.037255085	4.8008483703	;
	88	94	0.002833759	0.025810183	0.083771075	904	904	904	0	0	1	-30	30	7.89045963699	5.57511418455	-7.88590856582	-13.5705547097	;
	89	93	0.001483845	0.013515018	0.043865152	904	904	904	0	0	1	-30	30	318.250307041	-70.3899637602	-316.592528384	81.3049979662	;
	90	92	0.002453205	0.022344057	0.072521209	904	904	904	0	0	1	-30	30	8.51920870939	-13.3818110396	-8.51481594715	6.4826800521	;
	91	147	0.00275034	0.025050396	0.081305066	904	904	904	0	0	1	-30	30	-50.833280783	-5.08332887275	50.9043084847	-2.42235999028	;
...